opendss/LVTestCase/data/PV/PV_286.txt
New generator.m_gen27 Phases=1 Bus1=539.3 kV=0.23 kW=1 PF=0.95 Yearly=PV_Shape_47
New generator.m_gen11 Phases=1 Bus1=249.2 kV=0.23 kW=1 PF=0.95 Yearly=PV_Shape_140
New generator.m_gen52 Phases=1 Bus1=898.1 kV=0.23 kW=1 PF=0.95 Yearly=PV_Shape_66
New generator.m_gen50 Phases=1 Bus1=886.2 kV=0.23 kW=1 PF=0.95 Yearly=PV_Shape_127
New generator.m_gen10 Phases=1 Bus1=248.2 kV=0.23 kW=1 PF=0.95 Yearly=PV_Shape_115
New generator.m_gen2 Phases=1 Bus1=47.2 kV=0.23 kW=1 PF=0.95 Yearly=PV_Shape_75
New generator.m_gen12 Phases=1 Bus1=264.3 kV=0.23 kW=1 PF=0.95 Yearly=PV_Shape_61
New generator.m_gen55 Phases=1 Bus1=906.1 kV=0.23 kW=1 PF=0.95 Yearly=PV_Shape_144
New generator.m_gen35 Phases=1 Bus1=639.2 kV=0.23 kW=1 PF=0.95 Yearly=PV_Shape_153
New generator.m_gen47 Phases=1 Bus1=835.3 kV=0.23 kW=1 PF=0.95 Yearly=PV_Shape_138
New generator.m_gen37 Phases=1 Bus1=682.2 kV=0.23 kW=1 PF=0.95 Yearly=PV_Shape_129
New generator.m_gen45 Phases=1 Bus1=813.2 kV=0.23 kW=1 PF=0.95 Yearly=PV_Shape_155
New generator.m_gen32 Phases=1 Bus1=614.3 kV=0.23 kW=1 PF=0.95 Yearly=PV_Shape_146
New generator.m_gen14 Phases=1 Bus1=289.1 kV=0.23 kW=1 PF=0.95 Yearly=PV_Shape_111
New generator.m_gen29 Phases=1 Bus1=562.1 kV=0.23 kW=1 PF=0.95 Yearly=PV_Shape_69
New generator.m_gen4 Phases=1 Bus1=73.1 kV=0.23 kW=1 PF=0.95 Yearly=PV_Shape_131
New generator.m_gen24 Phases=1 Bus1=458.3 kV=0.23 kW=1 PF=0.95 Yearly=PV_Shape_154
New generator.m_gen31 Phases=1 Bus1=611.1 kV=0.23 kW=1 PF=0.95 Yearly=PV_Shape_56
New generator.m_gen5 Phases=1 Bus1=74.1 kV=0.23 kW=1 PF=0.95 Yearly=PV_Shape_42
New generator.m_gen38 Phases=1 Bus1=688.2 kV=0.23 kW=1 PF=0.95 Yearly=PV_Shape_49
New generator.m_gen28 Phases=1 Bus1=556.3 kV=0.23 kW=1 PF=0.95 Yearly=PV_Shape_67
New generator.m_gen19 Phases=1 Bus1=342.3 kV=0.23 kW=1 PF=0.95 Yearly=PV_Shape_101
New generator.m_gen36 Phases=1 Bus1=676.2 kV=0.23 kW=1 PF=0.95 Yearly=PV_Shape_117
New generator.m_gen54 Phases=1 Bus1=900.1 kV=0.23 kW=1 PF=0.95 Yearly=PV_Shape_113
New generator.m_gen26 Phases=1 Bus1=522.2 kV=0.23 kW=1 PF=0.95 Yearly=PV_Shape_15
New generator.m_gen21 Phases=1 Bus1=387.1 kV=0.23 kW=1 PF=0.95 Yearly=PV_Shape_20
New generator.m_gen49 Phases=1 Bus1=861.1 kV=0.23 kW=1 PF=0.95 Yearly=PV_Shape_33
New generator.m_gen25 Phases=1 Bus1=502.1 kV=0.23 kW=1 PF=0.95 Yearly=PV_Shape_60
New generator.m_gen22 Phases=1 Bus1=388.1 kV=0.23 kW=1 PF=0.95 Yearly=PV_Shape_35
New generator.m_gen9 Phases=1 Bus1=225.1 kV=0.23 kW=1 PF=0.95 Yearly=PV_Shape_161
New generator.m_gen30 Phases=1 Bus1=563.1 kV=0.23 kW=1 PF=0.95 Yearly=PV_Shape_92
New generator.m_gen40 Phases=1 Bus1=702.2 kV=0.23 kW=1 PF=0.95 Yearly=PV_Shape_63
New generator.m_gen15 Phases=1 Bus1=314.2 kV=0.23 kW=1 PF=0.95 Yearly=PV_Shape_27
New generator.m_gen20 Phases=1 Bus1=349.1 kV=0.23 kW=1 PF=0.95 Yearly=PV_Shape_68
New generator.m_gen8 Phases=1 Bus1=208.3 kV=0.23 kW=1 PF=0.95 Yearly=PV_Shape_156
New generator.m_gen43 Phases=1 Bus1=780.3 kV=0.23 kW=1 PF=0.95 Yearly=PV_Shape_22
New generator.m_gen34 Phases=1 Bus1=629.1 kV=0.23 kW=1 PF=0.95 Yearly=PV_Shape_24
New generator.m_gen23 Phases=1 Bus1=406.2 kV=0.23 kW=1 PF=0.95 Yearly=PV_Shape_83
